Circuit: * D:\Thesis\Simulation\feedback_loop_simulation\feedbackLoop.asc

.OP point found by inspection.

Date: Fri Dec 13 00:45:51 2024
Total elapsed time: 0.120 seconds.

tnom = 27
temp = 27
method = trap
totiter = 100
traniter = 0
tranpoints = 0
accept = 0
rejected = 0
matrix size = 5
fillins = 0
solver = Normal
Avg thread counts: 20.0/0.0/20.0/20.0
Matrix Compiler1:      10 opcodes  0.2/[0.1]/0.2
Matrix Compiler2:      29 opcodes  0.1/[0.1]/0.2

