Circuit: * D:\Thesis\Simulation\TL431_Vref_simulation\TL431_Vref.asc


Date: Fri Dec 13 00:47:10 2024
Total elapsed time: 0.103 seconds.

tnom = 27
temp = 27
method = trap
totiter = 79
traniter = 0
tranpoints = 0
accept = 0
rejected = 0
matrix size = 15
fillins = 8
solver = Normal
Avg thread counts: 20.0/0.0/20.0/20.0
Matrix Compiler1: 884 bytes object code size
Matrix Compiler2: 1.10 KB object code size
