Circuit: * D:\Thesis\Simulation\transmitter_circuit.asc

Warning: Multiple definitions of model "2scr375p" Type: BJT
Warning: Multiple definitions of model "bc857b" Type: BJT
Warning: Multiple definitions of model "bc847c" Type: BJT
Warning: Multiple definitions of model "bc847b" Type: BJT

Date: Wed Oct 23 23:10:05 2024
Total elapsed time: 0.059 seconds.

tnom = 27
temp = 27
method = trap
totiter = 130
traniter = 0
tranpoints = 0
accept = 0
rejected = 0
matrix size = 36
fillins = 72
solver = Normal
Avg thread counts: 20.0/0.0/20.0/20.0
Matrix Compiler1: 5.98 KB object code size  1.3/0.4/[0.3]
Matrix Compiler2: 4.15 KB object code size  0.3/0.3/[0.2]

